
---------- Begin Simulation Statistics ----------
sim_seconds                                  0.000018                       # Number of seconds simulated
sim_ticks                                    18305000                       # Number of ticks simulated
final_tick                                   18411500                       # Number of ticks from beginning of simulation (restored from checkpoints and never reset)
sim_freq                                 1000000000000                       # Frequency of simulated ticks
host_inst_rate                                  14501                       # Simulator instruction rate (inst/s)
host_op_rate                                    26184                       # Simulator op (including micro ops) rate (op/s)
host_tick_rate                               46473216                       # Simulator tick rate (ticks/s)
host_mem_usage                                 656204                       # Number of bytes of host memory used
host_seconds                                     0.39                       # Real time elapsed on the host
sim_insts                                        5711                       # Number of instructions simulated
sim_ops                                         10313                       # Number of ops (including micro ops) simulated
system.mem_ctrls.bytes_read::switch_cpus.inst        17024                       # Number of bytes read from this memory
system.mem_ctrls.bytes_read::switch_cpus.data         8192                       # Number of bytes read from this memory
system.mem_ctrls.bytes_read::total              25216                       # Number of bytes read from this memory
system.mem_ctrls.bytes_inst_read::switch_cpus.inst        17024                       # Number of instructions bytes read from this memory
system.mem_ctrls.bytes_inst_read::total         17024                       # Number of instructions bytes read from this memory
system.mem_ctrls.num_reads::switch_cpus.inst          266                       # Number of read requests responded to by this memory
system.mem_ctrls.num_reads::switch_cpus.data          128                       # Number of read requests responded to by this memory
system.mem_ctrls.num_reads::total                 394                       # Number of read requests responded to by this memory
system.mem_ctrls.bw_read::switch_cpus.inst    930019120                       # Total read bandwidth from this memory (bytes/s)
system.mem_ctrls.bw_read::switch_cpus.data    447527998                       # Total read bandwidth from this memory (bytes/s)
system.mem_ctrls.bw_read::total            1377547118                       # Total read bandwidth from this memory (bytes/s)
system.mem_ctrls.bw_inst_read::switch_cpus.inst    930019120                       # Instruction read bandwidth from this memory (bytes/s)
system.mem_ctrls.bw_inst_read::total        930019120                       # Instruction read bandwidth from this memory (bytes/s)
system.mem_ctrls.bw_total::switch_cpus.inst    930019120                       # Total bandwidth to/from this memory (bytes/s)
system.mem_ctrls.bw_total::switch_cpus.data    447527998                       # Total bandwidth to/from this memory (bytes/s)
system.mem_ctrls.bw_total::total           1377547118                       # Total bandwidth to/from this memory (bytes/s)
system.membus.throughput                   1377547118                       # Throughput (bytes/s)
system.membus.trans_dist::ReadReq                 327                       # Transaction distribution
system.membus.trans_dist::ReadResp                327                       # Transaction distribution
system.membus.trans_dist::ReadExReq                67                       # Transaction distribution
system.membus.trans_dist::ReadExResp               67                       # Transaction distribution
system.membus.pkt_count_system.l2.mem_side::system.mem_ctrls.port          788                       # Packet count per connected master and slave (bytes)
system.membus.pkt_count_system.l2.mem_side::total          788                       # Packet count per connected master and slave (bytes)
system.membus.pkt_count::total                    788                       # Packet count per connected master and slave (bytes)
system.membus.tot_pkt_size_system.l2.mem_side::system.mem_ctrls.port        25216                       # Cumulative packet size per connected master and slave (bytes)
system.membus.tot_pkt_size_system.l2.mem_side::total        25216                       # Cumulative packet size per connected master and slave (bytes)
system.membus.tot_pkt_size::total               25216                       # Cumulative packet size per connected master and slave (bytes)
system.membus.data_through_bus                  25216                       # Total data (bytes)
system.membus.snoop_data_through_bus                0                       # Total snoop data (bytes)
system.membus.reqLayer2.occupancy              576320                       # Layer occupancy (ticks)
system.membus.reqLayer2.utilization               3.1                       # Layer utilization (%)
system.membus.respLayer1.occupancy            3600500                       # Layer occupancy (ticks)
system.membus.respLayer1.utilization             19.7                       # Layer utilization (%)
system.switch_cpus.branchPred.lookups            3287                       # Number of BP lookups
system.switch_cpus.branchPred.condPredicted         3287                       # Number of conditional branches predicted
system.switch_cpus.branchPred.condIncorrect          559                       # Number of conditional branches incorrect
system.switch_cpus.branchPred.BTBLookups         2382                       # Number of BTB lookups
system.switch_cpus.branchPred.BTBHits             735                       # Number of BTB hits
system.switch_cpus.branchPred.BTBCorrect            0                       # Number of correct BTB predictions (this stat may not work properly.
system.switch_cpus.branchPred.BTBHitPct     30.856423                       # BTB Hit Percentage
system.switch_cpus.branchPred.usedRAS             242                       # Number of times the RAS was used to get a target.
system.switch_cpus.branchPred.RASInCorrect           78                       # Number of incorrect RAS predictions.
system.cpu.workload.num_syscalls                   11                       # Number of system calls
system.switch_cpus.numCycles                    36610                       # number of cpu cycles simulated
system.switch_cpus.numWorkItemsStarted              0                       # number of work items this cpu started
system.switch_cpus.numWorkItemsCompleted            0                       # number of work items this cpu completed
system.switch_cpus.fetch.icacheStallCycles         9029                       # Number of cycles fetch is stalled on an Icache miss
system.switch_cpus.fetch.Insts                  14889                       # Number of instructions fetch has processed
system.switch_cpus.fetch.Branches                3287                       # Number of branches that fetch encountered
system.switch_cpus.fetch.predictedBranches          977                       # Number of branches that fetch has predicted taken
system.switch_cpus.fetch.Cycles                  4134                       # Number of cycles fetch has run and was not squashing or blocked
system.switch_cpus.fetch.SquashCycles            2442                       # Number of cycles fetch has spent squashing
system.switch_cpus.fetch.BlockedCycles           5107                       # Number of cycles fetch has spent blocked
system.switch_cpus.fetch.MiscStallCycles           31                       # Number of cycles fetch has spent waiting on interrupts, or bad addresses, or out of MSHRs
system.switch_cpus.fetch.PendingTrapStallCycles          236                       # Number of stall cycles due to pending traps
system.switch_cpus.fetch.CacheLines              2029                       # Number of cache lines fetched
system.switch_cpus.fetch.IcacheSquashes           254                       # Number of outstanding Icache misses that were squashed
system.switch_cpus.fetch.rateDist::samples        20379                       # Number of instructions fetched each cycle (Total)
system.switch_cpus.fetch.rateDist::mean      1.300358                       # Number of instructions fetched each cycle (Total)
system.switch_cpus.fetch.rateDist::stdev     2.801813                       # Number of instructions fetched each cycle (Total)
system.switch_cpus.fetch.rateDist::underflows            0      0.00%      0.00% # Number of instructions fetched each cycle (Total)
system.switch_cpus.fetch.rateDist::0            16372     80.34%     80.34% # Number of instructions fetched each cycle (Total)
system.switch_cpus.fetch.rateDist::1              194      0.95%     81.29% # Number of instructions fetched each cycle (Total)
system.switch_cpus.fetch.rateDist::2              143      0.70%     81.99% # Number of instructions fetched each cycle (Total)
system.switch_cpus.fetch.rateDist::3              221      1.08%     83.08% # Number of instructions fetched each cycle (Total)
system.switch_cpus.fetch.rateDist::4              231      1.13%     84.21% # Number of instructions fetched each cycle (Total)
system.switch_cpus.fetch.rateDist::5              186      0.91%     85.12% # Number of instructions fetched each cycle (Total)
system.switch_cpus.fetch.rateDist::6              288      1.41%     86.54% # Number of instructions fetched each cycle (Total)
system.switch_cpus.fetch.rateDist::7              177      0.87%     87.40% # Number of instructions fetched each cycle (Total)
system.switch_cpus.fetch.rateDist::8             2567     12.60%    100.00% # Number of instructions fetched each cycle (Total)
system.switch_cpus.fetch.rateDist::overflows            0      0.00%    100.00% # Number of instructions fetched each cycle (Total)
system.switch_cpus.fetch.rateDist::min_value            0                       # Number of instructions fetched each cycle (Total)
system.switch_cpus.fetch.rateDist::max_value            8                       # Number of instructions fetched each cycle (Total)
system.switch_cpus.fetch.rateDist::total        20379                       # Number of instructions fetched each cycle (Total)
system.switch_cpus.fetch.branchRate          0.089784                       # Number of branch fetches per cycle
system.switch_cpus.fetch.rate                0.406692                       # Number of inst fetches per cycle
system.switch_cpus.decode.IdleCycles             9711                       # Number of cycles decode is idle
system.switch_cpus.decode.BlockedCycles          4990                       # Number of cycles decode is blocked
system.switch_cpus.decode.RunCycles              3711                       # Number of cycles decode is running
system.switch_cpus.decode.UnblockCycles           119                       # Number of cycles decode is unblocking
system.switch_cpus.decode.SquashCycles           1842                       # Number of cycles decode is squashing
system.switch_cpus.decode.DecodedInsts          25311                       # Number of instructions handled by decode
system.switch_cpus.rename.SquashCycles           1842                       # Number of cycles rename is squashing
system.switch_cpus.rename.IdleCycles            10062                       # Number of cycles rename is idle
system.switch_cpus.rename.BlockCycles            3584                       # Number of cycles rename is blocking
system.switch_cpus.rename.serializeStallCycles          701                       # count of cycles rename stalled for serializing inst
system.switch_cpus.rename.RunCycles              3464                       # Number of cycles rename is running
system.switch_cpus.rename.UnblockCycles           721                       # Number of cycles rename is unblocking
system.switch_cpus.rename.RenamedInsts          23774                       # Number of instructions processed by rename
system.switch_cpus.rename.ROBFullEvents            11                       # Number of times rename has blocked due to ROB full
system.switch_cpus.rename.IQFullEvents             24                       # Number of times rename has blocked due to IQ full
system.switch_cpus.rename.LSQFullEvents           619                       # Number of times rename has blocked due to LSQ full
system.switch_cpus.rename.RenamedOperands        26663                       # Number of destination operands rename has renamed
system.switch_cpus.rename.RenameLookups         57981                       # Number of register rename lookups that rename has made
system.switch_cpus.rename.int_rename_lookups        32966                       # Number of integer rename lookups
system.switch_cpus.rename.fp_rename_lookups            4                       # Number of floating rename lookups
system.switch_cpus.rename.CommittedMaps         11598                       # Number of HB maps that are committed
system.switch_cpus.rename.UndoneMaps            15065                       # Number of HB maps that are undone due to squashing
system.switch_cpus.rename.serializingInsts           31                       # count of serializing insts renamed
system.switch_cpus.rename.tempSerializingInsts           31                       # count of temporary serializing insts renamed
system.switch_cpus.rename.skidInsts              1897                       # count of insts added to the skid buffer
system.switch_cpus.memDep0.insertedLoads         2298                       # Number of loads inserted to the mem dependence unit.
system.switch_cpus.memDep0.insertedStores         1579                       # Number of stores inserted to the mem dependence unit.
system.switch_cpus.memDep0.conflictingLoads           11                       # Number of conflicting loads.
system.switch_cpus.memDep0.conflictingStores            4                       # Number of conflicting stores.
system.switch_cpus.iq.iqInstsAdded              21032                       # Number of instructions added to the IQ (excludes non-spec)
system.switch_cpus.iq.iqNonSpecInstsAdded           25                       # Number of non-speculative instructions added to the IQ
system.switch_cpus.iq.iqInstsIssued             17796                       # Number of instructions issued
system.switch_cpus.iq.iqSquashedInstsIssued          232                       # Number of squashed instructions issued
system.switch_cpus.iq.iqSquashedInstsExamined        10047                       # Number of squashed instructions iterated over during squash; mainly for profiling
system.switch_cpus.iq.iqSquashedOperandsExamined        14373                       # Number of squashed operands that are examined and possibly removed from graph
system.switch_cpus.iq.iqSquashedNonSpecRemoved           13                       # Number of squashed non-spec instructions that were removed
system.switch_cpus.iq.issued_per_cycle::samples        20379                       # Number of insts issued each cycle
system.switch_cpus.iq.issued_per_cycle::mean     0.873252                       # Number of insts issued each cycle
system.switch_cpus.iq.issued_per_cycle::stdev     1.747165                       # Number of insts issued each cycle
system.switch_cpus.iq.issued_per_cycle::underflows            0      0.00%      0.00% # Number of insts issued each cycle
system.switch_cpus.iq.issued_per_cycle::0        14818     72.71%     72.71% # Number of insts issued each cycle
system.switch_cpus.iq.issued_per_cycle::1         1445      7.09%     79.80% # Number of insts issued each cycle
system.switch_cpus.iq.issued_per_cycle::2         1116      5.48%     85.28% # Number of insts issued each cycle
system.switch_cpus.iq.issued_per_cycle::3          726      3.56%     88.84% # Number of insts issued each cycle
system.switch_cpus.iq.issued_per_cycle::4          699      3.43%     92.27% # Number of insts issued each cycle
system.switch_cpus.iq.issued_per_cycle::5          646      3.17%     95.44% # Number of insts issued each cycle
system.switch_cpus.iq.issued_per_cycle::6          634      3.11%     98.55% # Number of insts issued each cycle
system.switch_cpus.iq.issued_per_cycle::7          249      1.22%     99.77% # Number of insts issued each cycle
system.switch_cpus.iq.issued_per_cycle::8           46      0.23%    100.00% # Number of insts issued each cycle
system.switch_cpus.iq.issued_per_cycle::overflows            0      0.00%    100.00% # Number of insts issued each cycle
system.switch_cpus.iq.issued_per_cycle::min_value            0                       # Number of insts issued each cycle
system.switch_cpus.iq.issued_per_cycle::max_value            8                       # Number of insts issued each cycle
system.switch_cpus.iq.issued_per_cycle::total        20379                       # Number of insts issued each cycle
system.switch_cpus.iq.fu_full::No_OpClass            0      0.00%      0.00% # attempts to use FU when none available
system.switch_cpus.iq.fu_full::IntAlu             168     81.16%     81.16% # attempts to use FU when none available
system.switch_cpus.iq.fu_full::IntMult              0      0.00%     81.16% # attempts to use FU when none available
system.switch_cpus.iq.fu_full::IntDiv               0      0.00%     81.16% # attempts to use FU when none available
system.switch_cpus.iq.fu_full::FloatAdd             0      0.00%     81.16% # attempts to use FU when none available
system.switch_cpus.iq.fu_full::FloatCmp             0      0.00%     81.16% # attempts to use FU when none available
system.switch_cpus.iq.fu_full::FloatCvt             0      0.00%     81.16% # attempts to use FU when none available
system.switch_cpus.iq.fu_full::FloatMult            0      0.00%     81.16% # attempts to use FU when none available
system.switch_cpus.iq.fu_full::FloatDiv             0      0.00%     81.16% # attempts to use FU when none available
system.switch_cpus.iq.fu_full::FloatSqrt            0      0.00%     81.16% # attempts to use FU when none available
system.switch_cpus.iq.fu_full::SimdAdd              0      0.00%     81.16% # attempts to use FU when none available
system.switch_cpus.iq.fu_full::SimdAddAcc            0      0.00%     81.16% # attempts to use FU when none available
system.switch_cpus.iq.fu_full::SimdAlu              0      0.00%     81.16% # attempts to use FU when none available
system.switch_cpus.iq.fu_full::SimdCmp              0      0.00%     81.16% # attempts to use FU when none available
system.switch_cpus.iq.fu_full::SimdCvt              0      0.00%     81.16% # attempts to use FU when none available
system.switch_cpus.iq.fu_full::SimdMisc             0      0.00%     81.16% # attempts to use FU when none available
system.switch_cpus.iq.fu_full::SimdMult             0      0.00%     81.16% # attempts to use FU when none available
system.switch_cpus.iq.fu_full::SimdMultAcc            0      0.00%     81.16% # attempts to use FU when none available
system.switch_cpus.iq.fu_full::SimdShift            0      0.00%     81.16% # attempts to use FU when none available
system.switch_cpus.iq.fu_full::SimdShiftAcc            0      0.00%     81.16% # attempts to use FU when none available
system.switch_cpus.iq.fu_full::SimdSqrt             0      0.00%     81.16% # attempts to use FU when none available
system.switch_cpus.iq.fu_full::SimdFloatAdd            0      0.00%     81.16% # attempts to use FU when none available
system.switch_cpus.iq.fu_full::SimdFloatAlu            0      0.00%     81.16% # attempts to use FU when none available
system.switch_cpus.iq.fu_full::SimdFloatCmp            0      0.00%     81.16% # attempts to use FU when none available
system.switch_cpus.iq.fu_full::SimdFloatCvt            0      0.00%     81.16% # attempts to use FU when none available
system.switch_cpus.iq.fu_full::SimdFloatDiv            0      0.00%     81.16% # attempts to use FU when none available
system.switch_cpus.iq.fu_full::SimdFloatMisc            0      0.00%     81.16% # attempts to use FU when none available
system.switch_cpus.iq.fu_full::SimdFloatMult            0      0.00%     81.16% # attempts to use FU when none available
system.switch_cpus.iq.fu_full::SimdFloatMultAcc            0      0.00%     81.16% # attempts to use FU when none available
system.switch_cpus.iq.fu_full::SimdFloatSqrt            0      0.00%     81.16% # attempts to use FU when none available
system.switch_cpus.iq.fu_full::MemRead             24     11.59%     92.75% # attempts to use FU when none available
system.switch_cpus.iq.fu_full::MemWrite            15      7.25%    100.00% # attempts to use FU when none available
system.switch_cpus.iq.fu_full::IprAccess            0      0.00%    100.00% # attempts to use FU when none available
system.switch_cpus.iq.fu_full::InstPrefetch            0      0.00%    100.00% # attempts to use FU when none available
system.switch_cpus.iq.FU_type_0::No_OpClass            2      0.01%      0.01% # Type of FU issued
system.switch_cpus.iq.FU_type_0::IntAlu         14406     80.95%     80.96% # Type of FU issued
system.switch_cpus.iq.FU_type_0::IntMult           20      0.11%     81.07% # Type of FU issued
system.switch_cpus.iq.FU_type_0::IntDiv             7      0.04%     81.11% # Type of FU issued
system.switch_cpus.iq.FU_type_0::FloatAdd            0      0.00%     81.11% # Type of FU issued
system.switch_cpus.iq.FU_type_0::FloatCmp            0      0.00%     81.11% # Type of FU issued
system.switch_cpus.iq.FU_type_0::FloatCvt            0      0.00%     81.11% # Type of FU issued
system.switch_cpus.iq.FU_type_0::FloatMult            0      0.00%     81.11% # Type of FU issued
system.switch_cpus.iq.FU_type_0::FloatDiv            0      0.00%     81.11% # Type of FU issued
system.switch_cpus.iq.FU_type_0::FloatSqrt            0      0.00%     81.11% # Type of FU issued
system.switch_cpus.iq.FU_type_0::SimdAdd            0      0.00%     81.11% # Type of FU issued
system.switch_cpus.iq.FU_type_0::SimdAddAcc            0      0.00%     81.11% # Type of FU issued
system.switch_cpus.iq.FU_type_0::SimdAlu            0      0.00%     81.11% # Type of FU issued
system.switch_cpus.iq.FU_type_0::SimdCmp            0      0.00%     81.11% # Type of FU issued
system.switch_cpus.iq.FU_type_0::SimdCvt            0      0.00%     81.11% # Type of FU issued
system.switch_cpus.iq.FU_type_0::SimdMisc            0      0.00%     81.11% # Type of FU issued
system.switch_cpus.iq.FU_type_0::SimdMult            0      0.00%     81.11% # Type of FU issued
system.switch_cpus.iq.FU_type_0::SimdMultAcc            0      0.00%     81.11% # Type of FU issued
system.switch_cpus.iq.FU_type_0::SimdShift            0      0.00%     81.11% # Type of FU issued
system.switch_cpus.iq.FU_type_0::SimdShiftAcc            0      0.00%     81.11% # Type of FU issued
system.switch_cpus.iq.FU_type_0::SimdSqrt            0      0.00%     81.11% # Type of FU issued
system.switch_cpus.iq.FU_type_0::SimdFloatAdd            0      0.00%     81.11% # Type of FU issued
system.switch_cpus.iq.FU_type_0::SimdFloatAlu            0      0.00%     81.11% # Type of FU issued
system.switch_cpus.iq.FU_type_0::SimdFloatCmp            0      0.00%     81.11% # Type of FU issued
system.switch_cpus.iq.FU_type_0::SimdFloatCvt            0      0.00%     81.11% # Type of FU issued
system.switch_cpus.iq.FU_type_0::SimdFloatDiv            0      0.00%     81.11% # Type of FU issued
system.switch_cpus.iq.FU_type_0::SimdFloatMisc            0      0.00%     81.11% # Type of FU issued
system.switch_cpus.iq.FU_type_0::SimdFloatMult            0      0.00%     81.11% # Type of FU issued
system.switch_cpus.iq.FU_type_0::SimdFloatMultAcc            0      0.00%     81.11% # Type of FU issued
system.switch_cpus.iq.FU_type_0::SimdFloatSqrt            0      0.00%     81.11% # Type of FU issued
system.switch_cpus.iq.FU_type_0::MemRead         1979     11.12%     92.23% # Type of FU issued
system.switch_cpus.iq.FU_type_0::MemWrite         1382      7.77%    100.00% # Type of FU issued
system.switch_cpus.iq.FU_type_0::IprAccess            0      0.00%    100.00% # Type of FU issued
system.switch_cpus.iq.FU_type_0::InstPrefetch            0      0.00%    100.00% # Type of FU issued
system.switch_cpus.iq.FU_type_0::total          17796                       # Type of FU issued
system.switch_cpus.iq.rate                   0.486097                       # Inst issue rate
system.switch_cpus.iq.fu_busy_cnt                 207                       # FU busy when requested
system.switch_cpus.iq.fu_busy_rate           0.011632                       # FU busy rate (busy events/executed inst)
system.switch_cpus.iq.int_inst_queue_reads        56402                       # Number of integer instruction queue reads
system.switch_cpus.iq.int_inst_queue_writes        31111                       # Number of integer instruction queue writes
system.switch_cpus.iq.int_inst_queue_wakeup_accesses        16390                       # Number of integer instruction queue wakeup accesses
system.switch_cpus.iq.fp_inst_queue_reads            8                       # Number of floating instruction queue reads
system.switch_cpus.iq.fp_inst_queue_writes            4                       # Number of floating instruction queue writes
system.switch_cpus.iq.fp_inst_queue_wakeup_accesses            4                       # Number of floating instruction queue wakeup accesses
system.switch_cpus.iq.int_alu_accesses          17997                       # Number of integer alu accesses
system.switch_cpus.iq.fp_alu_accesses               4                       # Number of floating point alu accesses
system.switch_cpus.iew.lsq.thread0.forwLoads          146                       # Number of loads that had data forwarded from stores
system.switch_cpus.iew.lsq.thread0.invAddrLoads            0                       # Number of loads ignored due to an invalid address
system.switch_cpus.iew.lsq.thread0.squashedLoads         1233                       # Number of loads squashed
system.switch_cpus.iew.lsq.thread0.ignoredResponses           10                       # Number of memory responses ignored because the instruction is squashed
system.switch_cpus.iew.lsq.thread0.memOrderViolation           12                       # Number of memory ordering violations
system.switch_cpus.iew.lsq.thread0.squashedStores          658                       # Number of stores squashed
system.switch_cpus.iew.lsq.thread0.invAddrSwpfs            0                       # Number of software prefetches ignored due to an invalid address
system.switch_cpus.iew.lsq.thread0.blockedLoads            0                       # Number of blocked loads due to partial load-store forwarding
system.switch_cpus.iew.lsq.thread0.rescheduledLoads            1                       # Number of loads that were rescheduled
system.switch_cpus.iew.lsq.thread0.cacheBlocked            5                       # Number of times an access to memory failed due to the cache being blocked
system.switch_cpus.iew.iewIdleCycles                0                       # Number of cycles IEW is idle
system.switch_cpus.iew.iewSquashCycles           1842                       # Number of cycles IEW is squashing
system.switch_cpus.iew.iewBlockCycles            2880                       # Number of cycles IEW is blocking
system.switch_cpus.iew.iewUnblockCycles            35                       # Number of cycles IEW is unblocking
system.switch_cpus.iew.iewDispatchedInsts        21057                       # Number of instructions dispatched to IQ
system.switch_cpus.iew.iewDispSquashedInsts           56                       # Number of squashed instructions skipped by dispatch
system.switch_cpus.iew.iewDispLoadInsts          2298                       # Number of dispatched load instructions
system.switch_cpus.iew.iewDispStoreInsts         1579                       # Number of dispatched store instructions
system.switch_cpus.iew.iewDispNonSpecInsts           25                       # Number of dispatched non-speculative instructions
system.switch_cpus.iew.iewIQFullEvents              4                       # Number of times the IQ has become full, causing a stall
system.switch_cpus.iew.iewLSQFullEvents             0                       # Number of times the LSQ has become full, causing a stall
system.switch_cpus.iew.memOrderViolationEvents           12                       # Number of memory order violations
system.switch_cpus.iew.predictedTakenIncorrect          122                       # Number of branches that were predicted taken incorrectly
system.switch_cpus.iew.predictedNotTakenIncorrect          564                       # Number of branches that were predicted not taken incorrectly
system.switch_cpus.iew.branchMispredicts          686                       # Number of branch mispredicts detected at execute
system.switch_cpus.iew.iewExecutedInsts         16833                       # Number of executed instructions
system.switch_cpus.iew.iewExecLoadInsts          1854                       # Number of load instructions executed
system.switch_cpus.iew.iewExecSquashedInsts          963                       # Number of squashed instructions skipped in execute
system.switch_cpus.iew.exec_swp                     0                       # number of swp insts executed
system.switch_cpus.iew.exec_nop                     0                       # number of nop insts executed
system.switch_cpus.iew.exec_refs                 3143                       # number of memory reference insts executed
system.switch_cpus.iew.exec_branches             1714                       # Number of branches executed
system.switch_cpus.iew.exec_stores               1289                       # Number of stores executed
system.switch_cpus.iew.exec_rate             0.459792                       # Inst execution rate
system.switch_cpus.iew.wb_sent                  16593                       # cumulative count of insts sent to commit
system.switch_cpus.iew.wb_count                 16394                       # cumulative count of insts written-back
system.switch_cpus.iew.wb_producers             10651                       # num instructions producing a value
system.switch_cpus.iew.wb_consumers             16521                       # num instructions consuming a value
system.switch_cpus.iew.wb_penalized                 0                       # number of instrctions required to write to 'other' IQ
system.switch_cpus.iew.wb_rate               0.447801                       # insts written-back per cycle
system.switch_cpus.iew.wb_fanout             0.644695                       # average fanout of values written-back
system.switch_cpus.iew.wb_penalized_rate            0                       # fraction of instructions written-back that wrote to 'other' IQ
system.switch_cpus.commit.commitSquashedInsts        10935                       # The number of squashed insts skipped by commit
system.switch_cpus.commit.commitNonSpecStalls           12                       # The number of times commit has been forced to stall to communicate backwards
system.switch_cpus.commit.branchMispredicts          585                       # The number of times a branch was mispredicted
system.switch_cpus.commit.committed_per_cycle::samples        18537                       # Number of insts commited each cycle
system.switch_cpus.commit.committed_per_cycle::mean     0.546636                       # Number of insts commited each cycle
system.switch_cpus.commit.committed_per_cycle::stdev     1.412724                       # Number of insts commited each cycle
system.switch_cpus.commit.committed_per_cycle::underflows            0      0.00%      0.00% # Number of insts commited each cycle
system.switch_cpus.commit.committed_per_cycle::0        14849     80.10%     80.10% # Number of insts commited each cycle
system.switch_cpus.commit.committed_per_cycle::1         1373      7.41%     87.51% # Number of insts commited each cycle
system.switch_cpus.commit.committed_per_cycle::2          628      3.39%     90.90% # Number of insts commited each cycle
system.switch_cpus.commit.committed_per_cycle::3          744      4.01%     94.91% # Number of insts commited each cycle
system.switch_cpus.commit.committed_per_cycle::4          383      2.07%     96.98% # Number of insts commited each cycle
system.switch_cpus.commit.committed_per_cycle::5          142      0.77%     97.75% # Number of insts commited each cycle
system.switch_cpus.commit.committed_per_cycle::6          116      0.63%     98.37% # Number of insts commited each cycle
system.switch_cpus.commit.committed_per_cycle::7           82      0.44%     98.81% # Number of insts commited each cycle
system.switch_cpus.commit.committed_per_cycle::8          220      1.19%    100.00% # Number of insts commited each cycle
system.switch_cpus.commit.committed_per_cycle::overflows            0      0.00%    100.00% # Number of insts commited each cycle
system.switch_cpus.commit.committed_per_cycle::min_value            0                       # Number of insts commited each cycle
system.switch_cpus.commit.committed_per_cycle::max_value            8                       # Number of insts commited each cycle
system.switch_cpus.commit.committed_per_cycle::total        18537                       # Number of insts commited each cycle
system.switch_cpus.commit.committedInsts         5610                       # Number of instructions committed
system.switch_cpus.commit.committedOps          10133                       # Number of ops (including micro ops) committed
system.switch_cpus.commit.swp_count                 0                       # Number of s/w prefetches committed
system.switch_cpus.commit.refs                   1986                       # Number of memory references committed
system.switch_cpus.commit.loads                  1065                       # Number of loads committed
system.switch_cpus.commit.membars                   0                       # Number of memory barriers committed
system.switch_cpus.commit.branches               1285                       # Number of branches committed
system.switch_cpus.commit.fp_insts                  0                       # Number of committed floating point instructions.
system.switch_cpus.commit.int_insts             10027                       # Number of committed integer instructions.
system.switch_cpus.commit.function_calls          110                       # Number of function calls committed.
system.switch_cpus.commit.bw_lim_events           220                       # number cycles where commit BW limit reached
system.switch_cpus.commit.bw_limited                0                       # number of insts not committed due to BW limits
system.switch_cpus.rob.rob_reads                39385                       # The number of ROB reads
system.switch_cpus.rob.rob_writes               44002                       # The number of ROB writes
system.switch_cpus.timesIdled                     175                       # Number of times that the entire CPU went into an idle state and unscheduled itself
system.switch_cpus.idleCycles                   16231                       # Total number of cycles that the CPU has spent unscheduled due to idling
system.switch_cpus.committedInsts                5610                       # Number of Instructions Simulated
system.switch_cpus.committedOps                 10133                       # Number of Ops (including micro ops) Simulated
system.switch_cpus.committedInsts_total          5610                       # Number of Instructions Simulated
system.switch_cpus.cpi                       6.525847                       # CPI: Cycles Per Instruction
system.switch_cpus.cpi_total                 6.525847                       # CPI: Total CPI of All Threads
system.switch_cpus.ipc                       0.153237                       # IPC: Instructions Per Cycle
system.switch_cpus.ipc_total                 0.153237                       # IPC: Total IPC of All Threads
system.switch_cpus.int_regfile_reads            21603                       # number of integer regfile reads
system.switch_cpus.int_regfile_writes           12965                       # number of integer regfile writes
system.switch_cpus.fp_regfile_reads                 4                       # number of floating regfile reads
system.switch_cpus.cc_regfile_reads              8530                       # number of cc regfile reads
system.switch_cpus.cc_regfile_writes             5142                       # number of cc regfile writes
system.switch_cpus.misc_regfile_reads            7353                       # number of misc regfile reads
system.switch_cpus.misc_regfile_writes              1                       # number of misc regfile writes
system.l2.tags.replacements                         0                       # number of replacements
system.l2.tags.tagsinuse                   172.525276                       # Cycle average of tags in use
system.l2.tags.total_refs                           5                       # Total number of references to valid blocks.
system.l2.tags.sampled_refs                       341                       # Sample count of references to valid blocks.
system.l2.tags.avg_refs                      0.014663                       # Average number of references to valid blocks.
system.l2.tags.warmup_cycle                         0                       # Cycle when the warmup percentage was hit.
system.l2.tags.occ_blocks::switch_cpus.inst   129.607301                       # Average occupied blocks per requestor
system.l2.tags.occ_blocks::switch_cpus.data    28.917975                       # Average occupied blocks per requestor
system.l2.tags.occ_blocks::cpu.inst                 9                       # Average occupied blocks per requestor
system.l2.tags.occ_blocks::cpu.data                 5                       # Average occupied blocks per requestor
system.l2.tags.occ_percent::switch_cpus.inst     0.031642                       # Average percentage of cache occupancy
system.l2.tags.occ_percent::switch_cpus.data     0.007060                       # Average percentage of cache occupancy
system.l2.tags.occ_percent::cpu.inst         0.002197                       # Average percentage of cache occupancy
system.l2.tags.occ_percent::cpu.data         0.001221                       # Average percentage of cache occupancy
system.l2.tags.occ_percent::total            0.042120                       # Average percentage of cache occupancy
system.l2.ReadReq_hits::switch_cpus.inst            5                       # number of ReadReq hits
system.l2.ReadReq_hits::total                       5                       # number of ReadReq hits
system.l2.demand_hits::switch_cpus.inst             5                       # number of demand (read+write) hits
system.l2.demand_hits::total                        5                       # number of demand (read+write) hits
system.l2.overall_hits::switch_cpus.inst            5                       # number of overall hits
system.l2.overall_hits::total                       5                       # number of overall hits
system.l2.ReadReq_misses::switch_cpus.inst          266                       # number of ReadReq misses
system.l2.ReadReq_misses::switch_cpus.data           61                       # number of ReadReq misses
system.l2.ReadReq_misses::total                   327                       # number of ReadReq misses
system.l2.ReadExReq_misses::switch_cpus.data           67                       # number of ReadExReq misses
system.l2.ReadExReq_misses::total                  67                       # number of ReadExReq misses
system.l2.demand_misses::switch_cpus.inst          266                       # number of demand (read+write) misses
system.l2.demand_misses::switch_cpus.data          128                       # number of demand (read+write) misses
system.l2.demand_misses::total                    394                       # number of demand (read+write) misses
system.l2.overall_misses::switch_cpus.inst          266                       # number of overall misses
system.l2.overall_misses::switch_cpus.data          128                       # number of overall misses
system.l2.overall_misses::total                   394                       # number of overall misses
system.l2.ReadReq_miss_latency::switch_cpus.inst     16896000                       # number of ReadReq miss cycles
system.l2.ReadReq_miss_latency::switch_cpus.data      4035500                       # number of ReadReq miss cycles
system.l2.ReadReq_miss_latency::total        20931500                       # number of ReadReq miss cycles
system.l2.ReadExReq_miss_latency::switch_cpus.data      4298500                       # number of ReadExReq miss cycles
system.l2.ReadExReq_miss_latency::total       4298500                       # number of ReadExReq miss cycles
system.l2.demand_miss_latency::switch_cpus.inst     16896000                       # number of demand (read+write) miss cycles
system.l2.demand_miss_latency::switch_cpus.data      8334000                       # number of demand (read+write) miss cycles
system.l2.demand_miss_latency::total         25230000                       # number of demand (read+write) miss cycles
system.l2.overall_miss_latency::switch_cpus.inst     16896000                       # number of overall miss cycles
system.l2.overall_miss_latency::switch_cpus.data      8334000                       # number of overall miss cycles
system.l2.overall_miss_latency::total        25230000                       # number of overall miss cycles
system.l2.ReadReq_accesses::switch_cpus.inst          271                       # number of ReadReq accesses(hits+misses)
system.l2.ReadReq_accesses::switch_cpus.data           61                       # number of ReadReq accesses(hits+misses)
system.l2.ReadReq_accesses::total                 332                       # number of ReadReq accesses(hits+misses)
system.l2.ReadExReq_accesses::switch_cpus.data           67                       # number of ReadExReq accesses(hits+misses)
system.l2.ReadExReq_accesses::total                67                       # number of ReadExReq accesses(hits+misses)
system.l2.demand_accesses::switch_cpus.inst          271                       # number of demand (read+write) accesses
system.l2.demand_accesses::switch_cpus.data          128                       # number of demand (read+write) accesses
system.l2.demand_accesses::total                  399                       # number of demand (read+write) accesses
system.l2.overall_accesses::switch_cpus.inst          271                       # number of overall (read+write) accesses
system.l2.overall_accesses::switch_cpus.data          128                       # number of overall (read+write) accesses
system.l2.overall_accesses::total                 399                       # number of overall (read+write) accesses
system.l2.ReadReq_miss_rate::switch_cpus.inst     0.981550                       # miss rate for ReadReq accesses
system.l2.ReadReq_miss_rate::switch_cpus.data            1                       # miss rate for ReadReq accesses
system.l2.ReadReq_miss_rate::total           0.984940                       # miss rate for ReadReq accesses
system.l2.ReadExReq_miss_rate::switch_cpus.data            1                       # miss rate for ReadExReq accesses
system.l2.ReadExReq_miss_rate::total                1                       # miss rate for ReadExReq accesses
system.l2.demand_miss_rate::switch_cpus.inst     0.981550                       # miss rate for demand accesses
system.l2.demand_miss_rate::switch_cpus.data            1                       # miss rate for demand accesses
system.l2.demand_miss_rate::total            0.987469                       # miss rate for demand accesses
system.l2.overall_miss_rate::switch_cpus.inst     0.981550                       # miss rate for overall accesses
system.l2.overall_miss_rate::switch_cpus.data            1                       # miss rate for overall accesses
system.l2.overall_miss_rate::total           0.987469                       # miss rate for overall accesses
system.l2.ReadReq_avg_miss_latency::switch_cpus.inst 63518.796992                       # average ReadReq miss latency
system.l2.ReadReq_avg_miss_latency::switch_cpus.data 66155.737705                       # average ReadReq miss latency
system.l2.ReadReq_avg_miss_latency::total 64010.703364                       # average ReadReq miss latency
system.l2.ReadExReq_avg_miss_latency::switch_cpus.data 64156.716418                       # average ReadExReq miss latency
system.l2.ReadExReq_avg_miss_latency::total 64156.716418                       # average ReadExReq miss latency
system.l2.demand_avg_miss_latency::switch_cpus.inst 63518.796992                       # average overall miss latency
system.l2.demand_avg_miss_latency::switch_cpus.data 65109.375000                       # average overall miss latency
system.l2.demand_avg_miss_latency::total 64035.532995                       # average overall miss latency
system.l2.overall_avg_miss_latency::switch_cpus.inst 63518.796992                       # average overall miss latency
system.l2.overall_avg_miss_latency::switch_cpus.data 65109.375000                       # average overall miss latency
system.l2.overall_avg_miss_latency::total 64035.532995                       # average overall miss latency
system.l2.blocked_cycles::no_mshrs                  0                       # number of cycles access was blocked
system.l2.blocked_cycles::no_targets                0                       # number of cycles access was blocked
system.l2.blocked::no_mshrs                         0                       # number of cycles access was blocked
system.l2.blocked::no_targets                       0                       # number of cycles access was blocked
system.l2.avg_blocked_cycles::no_mshrs            nan                       # average number of cycles each access was blocked
system.l2.avg_blocked_cycles::no_targets          nan                       # average number of cycles each access was blocked
system.l2.fast_writes                               0                       # number of fast writes performed
system.l2.cache_copies                              0                       # number of cache copies performed
system.l2.ReadReq_mshr_misses::switch_cpus.inst          266                       # number of ReadReq MSHR misses
system.l2.ReadReq_mshr_misses::switch_cpus.data           61                       # number of ReadReq MSHR misses
system.l2.ReadReq_mshr_misses::total              327                       # number of ReadReq MSHR misses
system.l2.ReadExReq_mshr_misses::switch_cpus.data           67                       # number of ReadExReq MSHR misses
system.l2.ReadExReq_mshr_misses::total             67                       # number of ReadExReq MSHR misses
system.l2.demand_mshr_misses::switch_cpus.inst          266                       # number of demand (read+write) MSHR misses
system.l2.demand_mshr_misses::switch_cpus.data          128                       # number of demand (read+write) MSHR misses
system.l2.demand_mshr_misses::total               394                       # number of demand (read+write) MSHR misses
system.l2.overall_mshr_misses::switch_cpus.inst          266                       # number of overall MSHR misses
system.l2.overall_mshr_misses::switch_cpus.data          128                       # number of overall MSHR misses
system.l2.overall_mshr_misses::total              394                       # number of overall MSHR misses
system.l2.ReadReq_mshr_miss_latency::switch_cpus.inst     10999500                       # number of ReadReq MSHR miss cycles
system.l2.ReadReq_mshr_miss_latency::switch_cpus.data      2685500                       # number of ReadReq MSHR miss cycles
system.l2.ReadReq_mshr_miss_latency::total     13685000                       # number of ReadReq MSHR miss cycles
system.l2.ReadExReq_mshr_miss_latency::switch_cpus.data      2822500                       # number of ReadExReq MSHR miss cycles
system.l2.ReadExReq_mshr_miss_latency::total      2822500                       # number of ReadExReq MSHR miss cycles
system.l2.demand_mshr_miss_latency::switch_cpus.inst     10999500                       # number of demand (read+write) MSHR miss cycles
system.l2.demand_mshr_miss_latency::switch_cpus.data      5508000                       # number of demand (read+write) MSHR miss cycles
system.l2.demand_mshr_miss_latency::total     16507500                       # number of demand (read+write) MSHR miss cycles
system.l2.overall_mshr_miss_latency::switch_cpus.inst     10999500                       # number of overall MSHR miss cycles
system.l2.overall_mshr_miss_latency::switch_cpus.data      5508000                       # number of overall MSHR miss cycles
system.l2.overall_mshr_miss_latency::total     16507500                       # number of overall MSHR miss cycles
system.l2.ReadReq_mshr_miss_rate::switch_cpus.inst     0.981550                       # mshr miss rate for ReadReq accesses
system.l2.ReadReq_mshr_miss_rate::switch_cpus.data            1                       # mshr miss rate for ReadReq accesses
system.l2.ReadReq_mshr_miss_rate::total      0.984940                       # mshr miss rate for ReadReq accesses
system.l2.ReadExReq_mshr_miss_rate::switch_cpus.data            1                       # mshr miss rate for ReadExReq accesses
system.l2.ReadExReq_mshr_miss_rate::total            1                       # mshr miss rate for ReadExReq accesses
system.l2.demand_mshr_miss_rate::switch_cpus.inst     0.981550                       # mshr miss rate for demand accesses
system.l2.demand_mshr_miss_rate::switch_cpus.data            1                       # mshr miss rate for demand accesses
system.l2.demand_mshr_miss_rate::total       0.987469                       # mshr miss rate for demand accesses
system.l2.overall_mshr_miss_rate::switch_cpus.inst     0.981550                       # mshr miss rate for overall accesses
system.l2.overall_mshr_miss_rate::switch_cpus.data            1                       # mshr miss rate for overall accesses
system.l2.overall_mshr_miss_rate::total      0.987469                       # mshr miss rate for overall accesses
system.l2.ReadReq_avg_mshr_miss_latency::switch_cpus.inst 41351.503759                       # average ReadReq mshr miss latency
system.l2.ReadReq_avg_mshr_miss_latency::switch_cpus.data 44024.590164                       # average ReadReq mshr miss latency
system.l2.ReadReq_avg_mshr_miss_latency::total 41850.152905                       # average ReadReq mshr miss latency
system.l2.ReadExReq_avg_mshr_miss_latency::switch_cpus.data 42126.865672                       # average ReadExReq mshr miss latency
system.l2.ReadExReq_avg_mshr_miss_latency::total 42126.865672                       # average ReadExReq mshr miss latency
system.l2.demand_avg_mshr_miss_latency::switch_cpus.inst 41351.503759                       # average overall mshr miss latency
system.l2.demand_avg_mshr_miss_latency::switch_cpus.data 43031.250000                       # average overall mshr miss latency
system.l2.demand_avg_mshr_miss_latency::total 41897.208122                       # average overall mshr miss latency
system.l2.overall_avg_mshr_miss_latency::switch_cpus.inst 41351.503759                       # average overall mshr miss latency
system.l2.overall_avg_mshr_miss_latency::switch_cpus.data 43031.250000                       # average overall mshr miss latency
system.l2.overall_avg_mshr_miss_latency::total 41897.208122                       # average overall mshr miss latency
system.l2.no_allocate_misses                        0                       # Number of misses that were no-allocate
system.tol2bus.throughput                  1391532368                       # Throughput (bytes/s)
system.tol2bus.trans_dist::ReadReq                332                       # Transaction distribution
system.tol2bus.trans_dist::ReadResp               331                       # Transaction distribution
system.tol2bus.trans_dist::ReadExReq               67                       # Transaction distribution
system.tol2bus.trans_dist::ReadExResp              67                       # Transaction distribution
system.tol2bus.pkt_count_system.cpu.icache.mem_side::system.l2.cpu_side          542                       # Packet count per connected master and slave (bytes)
system.tol2bus.pkt_count_system.cpu.dcache.mem_side::system.l2.cpu_side          255                       # Packet count per connected master and slave (bytes)
system.tol2bus.pkt_count::total                   797                       # Packet count per connected master and slave (bytes)
system.tol2bus.tot_pkt_size_system.cpu.icache.mem_side::system.l2.cpu_side        17344                       # Cumulative packet size per connected master and slave (bytes)
system.tol2bus.tot_pkt_size_system.cpu.dcache.mem_side::system.l2.cpu_side         8128                       # Cumulative packet size per connected master and slave (bytes)
system.tol2bus.tot_pkt_size::total              25472                       # Cumulative packet size per connected master and slave (bytes)
system.tol2bus.data_through_bus                 25472                       # Total data (bytes)
system.tol2bus.snoop_data_through_bus               0                       # Total snoop data (bytes)
system.tol2bus.reqLayer0.occupancy             199500                       # Layer occupancy (ticks)
system.tol2bus.reqLayer0.utilization              1.1                       # Layer utilization (%)
system.tol2bus.respLayer0.occupancy            406500                       # Layer occupancy (ticks)
system.tol2bus.respLayer0.utilization             2.2                       # Layer utilization (%)
system.tol2bus.respLayer1.occupancy            190500                       # Layer occupancy (ticks)
system.tol2bus.respLayer1.utilization             1.0                       # Layer utilization (%)
system.cpu.numCycles                                0                       # number of cpu cycles simulated
system.cpu.numWorkItemsStarted                      0                       # number of work items this cpu started
system.cpu.numWorkItemsCompleted                    0                       # number of work items this cpu completed
system.cpu.committedInsts                           0                       # Number of instructions committed
system.cpu.committedOps                             0                       # Number of ops (including micro ops) committed
system.cpu.num_int_alu_accesses                     0                       # Number of integer alu accesses
system.cpu.num_fp_alu_accesses                      0                       # Number of float alu accesses
system.cpu.num_func_calls                           0                       # number of times a function call or return occured
system.cpu.num_conditional_control_insts            0                       # number of instructions that are conditional controls
system.cpu.num_int_insts                            0                       # number of integer instructions
system.cpu.num_fp_insts                             0                       # number of float instructions
system.cpu.num_int_register_reads                   0                       # number of times the integer registers were read
system.cpu.num_int_register_writes                  0                       # number of times the integer registers were written
system.cpu.num_fp_register_reads                    0                       # number of times the floating registers were read
system.cpu.num_fp_register_writes                   0                       # number of times the floating registers were written
system.cpu.num_mem_refs                             0                       # number of memory refs
system.cpu.num_load_insts                           0                       # Number of load instructions
system.cpu.num_store_insts                          0                       # Number of store instructions
system.cpu.num_idle_cycles                          0                       # Number of idle cycles
system.cpu.num_busy_cycles                          0                       # Number of busy cycles
system.cpu.not_idle_fraction                        1                       # Percentage of non-idle cycles
system.cpu.idle_fraction                            0                       # Percentage of idle cycles
system.cpu.icache.tags.replacements                30                       # number of replacements
system.cpu.icache.tags.tagsinuse           127.448381                       # Cycle average of tags in use
system.cpu.icache.tags.total_refs                1803                       # Total number of references to valid blocks.
system.cpu.icache.tags.sampled_refs               280                       # Sample count of references to valid blocks.
system.cpu.icache.tags.avg_refs              6.439286                       # Average number of references to valid blocks.
system.cpu.icache.tags.warmup_cycle                 0                       # Cycle when the warmup percentage was hit.
system.cpu.icache.tags.occ_blocks::switch_cpus.inst   118.448381                       # Average occupied blocks per requestor
system.cpu.icache.tags.occ_blocks::cpu.inst            9                       # Average occupied blocks per requestor
system.cpu.icache.tags.occ_percent::switch_cpus.inst     0.231344                       # Average percentage of cache occupancy
system.cpu.icache.tags.occ_percent::cpu.inst     0.017578                       # Average percentage of cache occupancy
system.cpu.icache.tags.occ_percent::total     0.248923                       # Average percentage of cache occupancy
system.cpu.icache.ReadReq_hits::switch_cpus.inst         1677                       # number of ReadReq hits
system.cpu.icache.ReadReq_hits::total            1677                       # number of ReadReq hits
system.cpu.icache.demand_hits::switch_cpus.inst         1677                       # number of demand (read+write) hits
system.cpu.icache.demand_hits::total             1677                       # number of demand (read+write) hits
system.cpu.icache.overall_hits::switch_cpus.inst         1677                       # number of overall hits
system.cpu.icache.overall_hits::total            1677                       # number of overall hits
system.cpu.icache.ReadReq_misses::switch_cpus.inst          352                       # number of ReadReq misses
system.cpu.icache.ReadReq_misses::total           352                       # number of ReadReq misses
system.cpu.icache.demand_misses::switch_cpus.inst          352                       # number of demand (read+write) misses
system.cpu.icache.demand_misses::total            352                       # number of demand (read+write) misses
system.cpu.icache.overall_misses::switch_cpus.inst          352                       # number of overall misses
system.cpu.icache.overall_misses::total           352                       # number of overall misses
system.cpu.icache.ReadReq_miss_latency::switch_cpus.inst     22020500                       # number of ReadReq miss cycles
system.cpu.icache.ReadReq_miss_latency::total     22020500                       # number of ReadReq miss cycles
system.cpu.icache.demand_miss_latency::switch_cpus.inst     22020500                       # number of demand (read+write) miss cycles
system.cpu.icache.demand_miss_latency::total     22020500                       # number of demand (read+write) miss cycles
system.cpu.icache.overall_miss_latency::switch_cpus.inst     22020500                       # number of overall miss cycles
system.cpu.icache.overall_miss_latency::total     22020500                       # number of overall miss cycles
system.cpu.icache.ReadReq_accesses::switch_cpus.inst         2029                       # number of ReadReq accesses(hits+misses)
system.cpu.icache.ReadReq_accesses::total         2029                       # number of ReadReq accesses(hits+misses)
system.cpu.icache.demand_accesses::switch_cpus.inst         2029                       # number of demand (read+write) accesses
system.cpu.icache.demand_accesses::total         2029                       # number of demand (read+write) accesses
system.cpu.icache.overall_accesses::switch_cpus.inst         2029                       # number of overall (read+write) accesses
system.cpu.icache.overall_accesses::total         2029                       # number of overall (read+write) accesses
system.cpu.icache.ReadReq_miss_rate::switch_cpus.inst     0.173484                       # miss rate for ReadReq accesses
system.cpu.icache.ReadReq_miss_rate::total     0.173484                       # miss rate for ReadReq accesses
system.cpu.icache.demand_miss_rate::switch_cpus.inst     0.173484                       # miss rate for demand accesses
system.cpu.icache.demand_miss_rate::total     0.173484                       # miss rate for demand accesses
system.cpu.icache.overall_miss_rate::switch_cpus.inst     0.173484                       # miss rate for overall accesses
system.cpu.icache.overall_miss_rate::total     0.173484                       # miss rate for overall accesses
system.cpu.icache.ReadReq_avg_miss_latency::switch_cpus.inst 62558.238636                       # average ReadReq miss latency
system.cpu.icache.ReadReq_avg_miss_latency::total 62558.238636                       # average ReadReq miss latency
system.cpu.icache.demand_avg_miss_latency::switch_cpus.inst 62558.238636                       # average overall miss latency
system.cpu.icache.demand_avg_miss_latency::total 62558.238636                       # average overall miss latency
system.cpu.icache.overall_avg_miss_latency::switch_cpus.inst 62558.238636                       # average overall miss latency
system.cpu.icache.overall_avg_miss_latency::total 62558.238636                       # average overall miss latency
system.cpu.icache.blocked_cycles::no_mshrs           93                       # number of cycles access was blocked
system.cpu.icache.blocked_cycles::no_targets            0                       # number of cycles access was blocked
system.cpu.icache.blocked::no_mshrs                 1                       # number of cycles access was blocked
system.cpu.icache.blocked::no_targets               0                       # number of cycles access was blocked
system.cpu.icache.avg_blocked_cycles::no_mshrs           93                       # average number of cycles each access was blocked
system.cpu.icache.avg_blocked_cycles::no_targets          nan                       # average number of cycles each access was blocked
system.cpu.icache.fast_writes                       0                       # number of fast writes performed
system.cpu.icache.cache_copies                      0                       # number of cache copies performed
system.cpu.icache.ReadReq_mshr_hits::switch_cpus.inst           81                       # number of ReadReq MSHR hits
system.cpu.icache.ReadReq_mshr_hits::total           81                       # number of ReadReq MSHR hits
system.cpu.icache.demand_mshr_hits::switch_cpus.inst           81                       # number of demand (read+write) MSHR hits
system.cpu.icache.demand_mshr_hits::total           81                       # number of demand (read+write) MSHR hits
system.cpu.icache.overall_mshr_hits::switch_cpus.inst           81                       # number of overall MSHR hits
system.cpu.icache.overall_mshr_hits::total           81                       # number of overall MSHR hits
system.cpu.icache.ReadReq_mshr_misses::switch_cpus.inst          271                       # number of ReadReq MSHR misses
system.cpu.icache.ReadReq_mshr_misses::total          271                       # number of ReadReq MSHR misses
system.cpu.icache.demand_mshr_misses::switch_cpus.inst          271                       # number of demand (read+write) MSHR misses
system.cpu.icache.demand_mshr_misses::total          271                       # number of demand (read+write) MSHR misses
system.cpu.icache.overall_mshr_misses::switch_cpus.inst          271                       # number of overall MSHR misses
system.cpu.icache.overall_mshr_misses::total          271                       # number of overall MSHR misses
system.cpu.icache.ReadReq_mshr_miss_latency::switch_cpus.inst     17217500                       # number of ReadReq MSHR miss cycles
system.cpu.icache.ReadReq_mshr_miss_latency::total     17217500                       # number of ReadReq MSHR miss cycles
system.cpu.icache.demand_mshr_miss_latency::switch_cpus.inst     17217500                       # number of demand (read+write) MSHR miss cycles
system.cpu.icache.demand_mshr_miss_latency::total     17217500                       # number of demand (read+write) MSHR miss cycles
system.cpu.icache.overall_mshr_miss_latency::switch_cpus.inst     17217500                       # number of overall MSHR miss cycles
system.cpu.icache.overall_mshr_miss_latency::total     17217500                       # number of overall MSHR miss cycles
system.cpu.icache.ReadReq_mshr_miss_rate::switch_cpus.inst     0.133563                       # mshr miss rate for ReadReq accesses
system.cpu.icache.ReadReq_mshr_miss_rate::total     0.133563                       # mshr miss rate for ReadReq accesses
system.cpu.icache.demand_mshr_miss_rate::switch_cpus.inst     0.133563                       # mshr miss rate for demand accesses
system.cpu.icache.demand_mshr_miss_rate::total     0.133563                       # mshr miss rate for demand accesses
system.cpu.icache.overall_mshr_miss_rate::switch_cpus.inst     0.133563                       # mshr miss rate for overall accesses
system.cpu.icache.overall_mshr_miss_rate::total     0.133563                       # mshr miss rate for overall accesses
system.cpu.icache.ReadReq_avg_mshr_miss_latency::switch_cpus.inst 63533.210332                       # average ReadReq mshr miss latency
system.cpu.icache.ReadReq_avg_mshr_miss_latency::total 63533.210332                       # average ReadReq mshr miss latency
system.cpu.icache.demand_avg_mshr_miss_latency::switch_cpus.inst 63533.210332                       # average overall mshr miss latency
system.cpu.icache.demand_avg_mshr_miss_latency::total 63533.210332                       # average overall mshr miss latency
system.cpu.icache.overall_avg_mshr_miss_latency::switch_cpus.inst 63533.210332                       # average overall mshr miss latency
system.cpu.icache.overall_avg_mshr_miss_latency::total 63533.210332                       # average overall mshr miss latency
system.cpu.icache.no_allocate_misses                0                       # Number of misses that were no-allocate
system.cpu.itb_walker_cache.tags.replacements            0                       # number of replacements
system.cpu.itb_walker_cache.tags.tagsinuse            0                       # Cycle average of tags in use
system.cpu.itb_walker_cache.tags.total_refs            0                       # Total number of references to valid blocks.
system.cpu.itb_walker_cache.tags.sampled_refs            0                       # Sample count of references to valid blocks.
system.cpu.itb_walker_cache.tags.avg_refs          nan                       # Average number of references to valid blocks.
system.cpu.itb_walker_cache.tags.warmup_cycle            0                       # Cycle when the warmup percentage was hit.
system.cpu.itb_walker_cache.blocked_cycles::no_mshrs            0                       # number of cycles access was blocked
system.cpu.itb_walker_cache.blocked_cycles::no_targets            0                       # number of cycles access was blocked
system.cpu.itb_walker_cache.blocked::no_mshrs            0                       # number of cycles access was blocked
system.cpu.itb_walker_cache.blocked::no_targets            0                       # number of cycles access was blocked
system.cpu.itb_walker_cache.avg_blocked_cycles::no_mshrs          nan                       # average number of cycles each access was blocked
system.cpu.itb_walker_cache.avg_blocked_cycles::no_targets          nan                       # average number of cycles each access was blocked
system.cpu.itb_walker_cache.fast_writes             0                       # number of fast writes performed
system.cpu.itb_walker_cache.cache_copies            0                       # number of cache copies performed
system.cpu.itb_walker_cache.no_allocate_misses            0                       # Number of misses that were no-allocate
system.cpu.dtb_walker_cache.tags.replacements            0                       # number of replacements
system.cpu.dtb_walker_cache.tags.tagsinuse            0                       # Cycle average of tags in use
system.cpu.dtb_walker_cache.tags.total_refs            0                       # Total number of references to valid blocks.
system.cpu.dtb_walker_cache.tags.sampled_refs            0                       # Sample count of references to valid blocks.
system.cpu.dtb_walker_cache.tags.avg_refs          nan                       # Average number of references to valid blocks.
system.cpu.dtb_walker_cache.tags.warmup_cycle            0                       # Cycle when the warmup percentage was hit.
system.cpu.dtb_walker_cache.blocked_cycles::no_mshrs            0                       # number of cycles access was blocked
system.cpu.dtb_walker_cache.blocked_cycles::no_targets            0                       # number of cycles access was blocked
system.cpu.dtb_walker_cache.blocked::no_mshrs            0                       # number of cycles access was blocked
system.cpu.dtb_walker_cache.blocked::no_targets            0                       # number of cycles access was blocked
system.cpu.dtb_walker_cache.avg_blocked_cycles::no_mshrs          nan                       # average number of cycles each access was blocked
system.cpu.dtb_walker_cache.avg_blocked_cycles::no_targets          nan                       # average number of cycles each access was blocked
system.cpu.dtb_walker_cache.fast_writes             0                       # number of fast writes performed
system.cpu.dtb_walker_cache.cache_copies            0                       # number of cache copies performed
system.cpu.dtb_walker_cache.no_allocate_misses            0                       # Number of misses that were no-allocate
system.cpu.dcache.tags.replacements                 0                       # number of replacements
system.cpu.dcache.tags.tagsinuse            86.303281                       # Cycle average of tags in use
system.cpu.dcache.tags.total_refs                2415                       # Total number of references to valid blocks.
system.cpu.dcache.tags.sampled_refs               141                       # Sample count of references to valid blocks.
system.cpu.dcache.tags.avg_refs             17.127660                       # Average number of references to valid blocks.
system.cpu.dcache.tags.warmup_cycle                 0                       # Cycle when the warmup percentage was hit.
system.cpu.dcache.tags.occ_blocks::switch_cpus.data    72.303281                       # Average occupied blocks per requestor
system.cpu.dcache.tags.occ_blocks::cpu.data           14                       # Average occupied blocks per requestor
system.cpu.dcache.tags.occ_percent::switch_cpus.data     0.070609                       # Average percentage of cache occupancy
system.cpu.dcache.tags.occ_percent::cpu.data     0.013672                       # Average percentage of cache occupancy
system.cpu.dcache.tags.occ_percent::total     0.084281                       # Average percentage of cache occupancy
system.cpu.dcache.ReadReq_hits::switch_cpus.data         1536                       # number of ReadReq hits
system.cpu.dcache.ReadReq_hits::total            1536                       # number of ReadReq hits
system.cpu.dcache.WriteReq_hits::switch_cpus.data          854                       # number of WriteReq hits
system.cpu.dcache.WriteReq_hits::total            854                       # number of WriteReq hits
system.cpu.dcache.demand_hits::switch_cpus.data         2390                       # number of demand (read+write) hits
system.cpu.dcache.demand_hits::total             2390                       # number of demand (read+write) hits
system.cpu.dcache.overall_hits::switch_cpus.data         2390                       # number of overall hits
system.cpu.dcache.overall_hits::total            2390                       # number of overall hits
system.cpu.dcache.ReadReq_misses::switch_cpus.data          117                       # number of ReadReq misses
system.cpu.dcache.ReadReq_misses::total           117                       # number of ReadReq misses
system.cpu.dcache.WriteReq_misses::switch_cpus.data           67                       # number of WriteReq misses
system.cpu.dcache.WriteReq_misses::total           67                       # number of WriteReq misses
system.cpu.dcache.demand_misses::switch_cpus.data          184                       # number of demand (read+write) misses
system.cpu.dcache.demand_misses::total            184                       # number of demand (read+write) misses
system.cpu.dcache.overall_misses::switch_cpus.data          184                       # number of overall misses
system.cpu.dcache.overall_misses::total           184                       # number of overall misses
system.cpu.dcache.ReadReq_miss_latency::switch_cpus.data      7082500                       # number of ReadReq miss cycles
system.cpu.dcache.ReadReq_miss_latency::total      7082500                       # number of ReadReq miss cycles
system.cpu.dcache.WriteReq_miss_latency::switch_cpus.data      4566500                       # number of WriteReq miss cycles
system.cpu.dcache.WriteReq_miss_latency::total      4566500                       # number of WriteReq miss cycles
system.cpu.dcache.demand_miss_latency::switch_cpus.data     11649000                       # number of demand (read+write) miss cycles
system.cpu.dcache.demand_miss_latency::total     11649000                       # number of demand (read+write) miss cycles
system.cpu.dcache.overall_miss_latency::switch_cpus.data     11649000                       # number of overall miss cycles
system.cpu.dcache.overall_miss_latency::total     11649000                       # number of overall miss cycles
system.cpu.dcache.ReadReq_accesses::switch_cpus.data         1653                       # number of ReadReq accesses(hits+misses)
system.cpu.dcache.ReadReq_accesses::total         1653                       # number of ReadReq accesses(hits+misses)
system.cpu.dcache.WriteReq_accesses::switch_cpus.data          921                       # number of WriteReq accesses(hits+misses)
system.cpu.dcache.WriteReq_accesses::total          921                       # number of WriteReq accesses(hits+misses)
system.cpu.dcache.demand_accesses::switch_cpus.data         2574                       # number of demand (read+write) accesses
system.cpu.dcache.demand_accesses::total         2574                       # number of demand (read+write) accesses
system.cpu.dcache.overall_accesses::switch_cpus.data         2574                       # number of overall (read+write) accesses
system.cpu.dcache.overall_accesses::total         2574                       # number of overall (read+write) accesses
system.cpu.dcache.ReadReq_miss_rate::switch_cpus.data     0.070780                       # miss rate for ReadReq accesses
system.cpu.dcache.ReadReq_miss_rate::total     0.070780                       # miss rate for ReadReq accesses
system.cpu.dcache.WriteReq_miss_rate::switch_cpus.data     0.072747                       # miss rate for WriteReq accesses
system.cpu.dcache.WriteReq_miss_rate::total     0.072747                       # miss rate for WriteReq accesses
system.cpu.dcache.demand_miss_rate::switch_cpus.data     0.071484                       # miss rate for demand accesses
system.cpu.dcache.demand_miss_rate::total     0.071484                       # miss rate for demand accesses
system.cpu.dcache.overall_miss_rate::switch_cpus.data     0.071484                       # miss rate for overall accesses
system.cpu.dcache.overall_miss_rate::total     0.071484                       # miss rate for overall accesses
system.cpu.dcache.ReadReq_avg_miss_latency::switch_cpus.data 60534.188034                       # average ReadReq miss latency
system.cpu.dcache.ReadReq_avg_miss_latency::total 60534.188034                       # average ReadReq miss latency
system.cpu.dcache.WriteReq_avg_miss_latency::switch_cpus.data 68156.716418                       # average WriteReq miss latency
system.cpu.dcache.WriteReq_avg_miss_latency::total 68156.716418                       # average WriteReq miss latency
system.cpu.dcache.demand_avg_miss_latency::switch_cpus.data 63309.782609                       # average overall miss latency
system.cpu.dcache.demand_avg_miss_latency::total 63309.782609                       # average overall miss latency
system.cpu.dcache.overall_avg_miss_latency::switch_cpus.data 63309.782609                       # average overall miss latency
system.cpu.dcache.overall_avg_miss_latency::total 63309.782609                       # average overall miss latency
system.cpu.dcache.blocked_cycles::no_mshrs           65                       # number of cycles access was blocked
system.cpu.dcache.blocked_cycles::no_targets            0                       # number of cycles access was blocked
system.cpu.dcache.blocked::no_mshrs                 1                       # number of cycles access was blocked
system.cpu.dcache.blocked::no_targets               0                       # number of cycles access was blocked
system.cpu.dcache.avg_blocked_cycles::no_mshrs           65                       # average number of cycles each access was blocked
system.cpu.dcache.avg_blocked_cycles::no_targets          nan                       # average number of cycles each access was blocked
system.cpu.dcache.fast_writes                       0                       # number of fast writes performed
system.cpu.dcache.cache_copies                      0                       # number of cache copies performed
system.cpu.dcache.ReadReq_mshr_hits::switch_cpus.data           56                       # number of ReadReq MSHR hits
system.cpu.dcache.ReadReq_mshr_hits::total           56                       # number of ReadReq MSHR hits
system.cpu.dcache.demand_mshr_hits::switch_cpus.data           56                       # number of demand (read+write) MSHR hits
system.cpu.dcache.demand_mshr_hits::total           56                       # number of demand (read+write) MSHR hits
system.cpu.dcache.overall_mshr_hits::switch_cpus.data           56                       # number of overall MSHR hits
system.cpu.dcache.overall_mshr_hits::total           56                       # number of overall MSHR hits
system.cpu.dcache.ReadReq_mshr_misses::switch_cpus.data           61                       # number of ReadReq MSHR misses
system.cpu.dcache.ReadReq_mshr_misses::total           61                       # number of ReadReq MSHR misses
system.cpu.dcache.WriteReq_mshr_misses::switch_cpus.data           67                       # number of WriteReq MSHR misses
system.cpu.dcache.WriteReq_mshr_misses::total           67                       # number of WriteReq MSHR misses
system.cpu.dcache.demand_mshr_misses::switch_cpus.data          128                       # number of demand (read+write) MSHR misses
system.cpu.dcache.demand_mshr_misses::total          128                       # number of demand (read+write) MSHR misses
system.cpu.dcache.overall_mshr_misses::switch_cpus.data          128                       # number of overall MSHR misses
system.cpu.dcache.overall_mshr_misses::total          128                       # number of overall MSHR misses
system.cpu.dcache.ReadReq_mshr_miss_latency::switch_cpus.data      4033500                       # number of ReadReq MSHR miss cycles
system.cpu.dcache.ReadReq_mshr_miss_latency::total      4033500                       # number of ReadReq MSHR miss cycles
system.cpu.dcache.WriteReq_mshr_miss_latency::switch_cpus.data      4365500                       # number of WriteReq MSHR miss cycles
system.cpu.dcache.WriteReq_mshr_miss_latency::total      4365500                       # number of WriteReq MSHR miss cycles
system.cpu.dcache.demand_mshr_miss_latency::switch_cpus.data      8399000                       # number of demand (read+write) MSHR miss cycles
system.cpu.dcache.demand_mshr_miss_latency::total      8399000                       # number of demand (read+write) MSHR miss cycles
system.cpu.dcache.overall_mshr_miss_latency::switch_cpus.data      8399000                       # number of overall MSHR miss cycles
system.cpu.dcache.overall_mshr_miss_latency::total      8399000                       # number of overall MSHR miss cycles
system.cpu.dcache.ReadReq_mshr_miss_rate::switch_cpus.data     0.036903                       # mshr miss rate for ReadReq accesses
system.cpu.dcache.ReadReq_mshr_miss_rate::total     0.036903                       # mshr miss rate for ReadReq accesses
system.cpu.dcache.WriteReq_mshr_miss_rate::switch_cpus.data     0.072747                       # mshr miss rate for WriteReq accesses
system.cpu.dcache.WriteReq_mshr_miss_rate::total     0.072747                       # mshr miss rate for WriteReq accesses
system.cpu.dcache.demand_mshr_miss_rate::switch_cpus.data     0.049728                       # mshr miss rate for demand accesses
system.cpu.dcache.demand_mshr_miss_rate::total     0.049728                       # mshr miss rate for demand accesses
system.cpu.dcache.overall_mshr_miss_rate::switch_cpus.data     0.049728                       # mshr miss rate for overall accesses
system.cpu.dcache.overall_mshr_miss_rate::total     0.049728                       # mshr miss rate for overall accesses
system.cpu.dcache.ReadReq_avg_mshr_miss_latency::switch_cpus.data 66122.950820                       # average ReadReq mshr miss latency
system.cpu.dcache.ReadReq_avg_mshr_miss_latency::total 66122.950820                       # average ReadReq mshr miss latency
system.cpu.dcache.WriteReq_avg_mshr_miss_latency::switch_cpus.data 65156.716418                       # average WriteReq mshr miss latency
system.cpu.dcache.WriteReq_avg_mshr_miss_latency::total 65156.716418                       # average WriteReq mshr miss latency
system.cpu.dcache.demand_avg_mshr_miss_latency::switch_cpus.data 65617.187500                       # average overall mshr miss latency
system.cpu.dcache.demand_avg_mshr_miss_latency::total 65617.187500                       # average overall mshr miss latency
system.cpu.dcache.overall_avg_mshr_miss_latency::switch_cpus.data 65617.187500                       # average overall mshr miss latency
system.cpu.dcache.overall_avg_mshr_miss_latency::total 65617.187500                       # average overall mshr miss latency
system.cpu.dcache.no_allocate_misses                0                       # Number of misses that were no-allocate

---------- End Simulation Statistics   ----------
